<<<<<<< HEAD
This is my edited file.
This is a line for branch testing.

=======
New line.
>>>>>>> develop
